# MODFLOW-6 SFR input; created by SFRmaker v. 0.9.4.post4.dev0+g22722bb

BEGIN Options
  save_flows
  BUDGET FILEOUT nhd_hr_demo.sfr.cbc
  STAGE FILEOUT nhd_hr_demo.sfr.stage.bin
  unit_conversion  86400.0
  auxiliary line_id
END Options

BEGIN Dimensions
  NREACHES 2014
END Dimensions

BEGIN Packagedata
#rno k i j rlen rwid rgrd rtp rbth rhk man ncon ustrf ndv line_id
1 1 44 79 6.598558 1.0 0.3675026894795912 565.1900024414062 1 1.0 0.03700000047683716 1 1.0 0 10000200173049
2 1 44 79 11.517587 1.0 0.3946150823896369 562.7650146484375 1 1.0 0.03700000047683716 2 1.0 0 10000200240969
3 1 44 79 53.32878 1.0131214261054993 0.08175727584475337 558.2200012207031 1 1.0 0.03700000047683716 2 1.0 0 10000200299131
4 1 83 18 41.88709 1.0 0.017428066921489276 475.6700134277344 1 1.0 0.03700000047683716 1 1.0 0 10000200298682
5 1 44 79 11.250318 1.0511763095855713 0.7715124833007908 553.8599853515625 1 1.0 0.03700000047683716 2 1.0 0 10000200279504
6 1 83 18 20.456081 1.0 0.10463799438368744 474.94000244140625 1 1.0 0.03700000047683716 2 1.0 0 10000200133828
7 1 44 78 109.885666 1.2360196887154764 0.08409671592132177 545.1802249024724 1 1.0 0.03700000047683716 2 1.0 0 10000200036652
8 1 43 78 47.79945 1.5747062330305774 0.15025206773187702 535.9392012739969 1 1.0 0.03700000047683716 2 1.0 0 10000200036652
9 1 43 77 74.75077 1.837927647352675 0.15135047021927306 528.7572350869723 1 1.0 0.03700000047683716 2 1.0 0 10000200036652
10 1 42 77 118.29941 2.2525734855396737 0.06913195487457285 517.4436708121242 1 1.0 0.03700000047683716 2 1.0 0 10000200036652
11 1 41 77 21.251242 2.5523097366448315 0.4287405669672723 509.265401479415 1 1.0 0.03700000047683716 2 1.0 0 10000200036652
12 1 42 85 5.1056075 1.007577686467939 1.0 620.7048071666239 1 1.0 0.03700000047683716 1 1.0 0 10000200065971
13 1 42 84 107.96381 1.1753940727381385 0.12742189444559698 613.5023974516332 1 1.0 0.03700000047683716 2 1.0 0 10000200065971
14 1 42 83 108.00429 1.4959315518085183 0.1262609812574642 599.7454437679925 1 1.0 0.03700000047683716 2 1.0 0 10000200065971
15 1 42 82 106.07637 1.8136677532422438 0.13272308461082435 586.1087164204863 1 1.0 0.03700000047683716 2 1.0 0 10000200065971
16 1 41 81 114.944084 2.1417038675595164 0.08364991335797435 572.0299333580122 1 1.0 0.03700000047683716 2 1.0 0 10000200065971
17 1 41 80 36.001167 2.3657351483172326 0.11782515235685395 562.4148706763907 1 1.0 0.03700000047683716 2 1.0 0 10000200065971
18 1 42 80 30.590818 2.4645702320210168 0.16082831101642678 558.1730276545543 1 1.0 0.03700000047683716 2 1.0 0 10000200065971
19 1 41 80 46.645367 2.5792033589023124 0.21657511321427486 553.2531579978436 1 1.0 0.03700000047683716 2 1.0 0 10000200065971
20 1 41 79 111.947754 2.814585551121204 0.12723874563768017 543.1509324306483 1 1.0 0.03700000047683716 2 1.0 0 10000200065971
21 1 41 78 111.66785 3.146473364156127 0.12537176647999979 528.9068406466613 1 1.0 0.03700000047683716 2 1.0 0 10000200065971
22 1 41 77 108.115654 3.472673718589273 0.13645307440371476 514.9068454494111 1 1.0 0.03700000047683716 2 1.0 0 10000200065971
23 1 83 19 41.51037 1.1189361091009726 0.06781443514607238 472.7995191117673 1 1.0 0.03700000047683716 2 1.0 0 10000200230727
24 1 84 19 41.33549 1.3563072339200453 0.033978799264841174 469.9845169295987 1 1.0 0.03700000047683716 2 1.0 0 10000200230727
25 1 38 78 25.440668 1.0407971917058796 0.13449645849975628 518.2864523991333 1 1.0 0.03700000047683716 1 1.0 0 10000200211618
26 1 38 77 54.162117 1.1684498899488545 0.08749464905124708 514.8647726369979 1 1.0 0.03700000047683716 2 1.0 0 10000200211618
27 1 39 77 56.084682 1.345243987877847 0.1439881015800398 510.12587721782586 1 1.0 0.03700000047683716 2 1.0 0 10000200211618
28 1 39 76 131.78632 1.6465178876299567 0.08616018229632383 502.0503502620288 1 1.0 0.03700000047683716 2 1.0 0 10000200211618
29 1 39 75 132.37292 2.0701292149624577 0.07179525352188523 490.6956172583757 1 1.0 0.03700000047683716 2 1.0 0 10000200211618
30 1 40 75 88.72458 2.424685783994055 0.054384128965593394 481.1918695625897 1 1.0 0.03700000047683716 2 1.0 0 10000200211618
31 1 40 74 23.530231 2.604699982711789 0.27600159695193505 476.3666606235897 1 1.0 0.03700000047683716 2 1.0 0 10000200211618
32 1 41 74 127.55657 2.846986045384872 0.05438844226335509 469.87227915961194 1 1.0 0.03700000047683716 2 1.0 0 10000200211618
33 1 42 74 33.841618 3.105807395039825 0.06155396406383874 462.93467591022954 1 1.0 0.03700000047683716 2 1.0 0 10000200211618
34 1 41 76 123.29412 1.6851322872978118 0.12305113780346795 500.1541320710755 1 1.0 0.03700000047683716 3 1.0 0 10000200075820
35 1 41 75 114.512695 3.006599501326779 0.07700176825661881 484.9826502235632 1 1.0 0.03700000047683716 2 1.0 0 10000200075820
36 1 42 75 23.700876 3.7746375332378856 0.34169646832139594 476.1649701966693 1 1.0 0.03700000047683716 2 1.0 0 10000200075820
37 1 42 74 103.23997 4.480034005421991 0.0698845077017258 468.0664644907186 1 1.0 0.03700000047683716 2 1.0 0 10000200075820
38 1 36 63 19.88016 1.0284669873468146 0.0001 413.1300048828125 1 1.0 0.03700000047683716 1 1.0 0 10000200026914
39 1 37 63 121.29163 1.2306150743487927 0.0001 413.1300048828125 1 1.0 0.03700000047683716 2 1.0 0 10000200026914
40 1 37 64 9.057911 1.4172663986136518 0.0001 413.1300048828125 1 1.0 0.03700000047683716 2 1.0 0 10000200026914
41 1 38 64 131.80576 1.6189732593276194 0.0001 413.1300048828125 1 1.0 0.03700000047683716 2 1.0 0 10000200026914
42 1 38 65 14.429939 1.8283724587807801 0.0001 413.1300048828125 1 1.0 0.03700000047683716 2 1.0 0 10000200026914
43 1 39 65 113.98768 2.012257416495139 0.0001 413.1300048828125 1 1.0 0.03700000047683716 2 1.0 0 10000200026914
44 1 39 66 45.659515 2.2408609811893054 0.0001 413.1300048828125 1 1.0 0.03700000047683716 2 1.0 0 10000200026914
45 1 40 66 82.62506 2.4245554985683495 0.0001 413.1300048828125 1 1.0 0.03700000047683716 2 1.0 0 10000200026914
46 1 40 67 81.64749 2.6597821743457954 0.0001 413.1300048828125 1 1.0 0.03700000047683716 2 1.0 0 10000200026914
47 1 41 67 39.36431 2.8330626031360078 0.0001 413.1300048828125 1 1.0 0.03700000047683716 2 1.0 0 10000200026914
48 1 41 68 114.41259 3.0532602240713205 0.0001 413.1300048828125 1 1.0 0.03700000047683716 2 1.0 0 10000200026914
49 1 41 69 52.038383 3.2916063981912984 0.0001 413.1300048828125 1 1.0 0.03700000047683716 2 1.0 0 10000200026914
50 1 42 69 62.374207 3.455437175795247 0.0001 413.1300048828125 1 1.0 0.03700000047683716 2 1.0 0 10000200026914
51 1 42 70 114.41259 3.7085833344871157 0.0001 413.1300048828125 1 1.0 0.03700000047683716 2 1.0 0 10000200026914
52 1 84 19 53.85518 1.3623096942901611 0.0001 468.5799865722656 1 1.0 0.03700000047683716 2 1.0 0 10000200124339
53 1 42 74 8.756533 1.0699590635584149 1.0 460.85159019758777 1 1.0 0.03700000047683716 3 1.0 0 10000200289268
54 1 42 73 119.99361 2.0985898295856087 0.13676446721270596 451.6117158420702 1 1.0 0.03700000047683716 2 1.0 0 10000200289268
55 1 42 72 108.67838 3.92553211932026 0.12977397277064393 435.20085417095106 1 1.0 0.03700000047683716 2 1.0 0 10000200289268
56 1 42 71 87.844215 5.495620904450153 0.08123155055700411 421.0972286711633 1 1.0 0.03700000047683716 2 1.0 0 10000200289268
57 1 43 71 11.586278 6.290006490595355 0.07176609841874855 413.96150684732106 1 1.0 0.03700000047683716 2 1.0 0 10000200289268
58 1 42 71 15.854956 1.3465920358150505 0.0001 413.1300048828125 1 1.0 0.03700000047683716 2 1.0 0 10000200105272
59 1 43 71 52.845478 2.8483952372237624 0.0001 413.1300048828125 1 1.0 0.03700000047683716 2 1.0 0 10000200105272
60 1 84 19 9.84917 1.383216381072998 0.15964015905773762 468.5799865722656 1 1.0 0.03700000047683716 2 1.0 0 10000200095206
61 1 43 71 64.883484 4.30672025680542 0.0001 413.1300048828125 1 1.0 0.03700000047683716 3 1.0 0 10000200017212
62 1 85 17 95.876 1.1767788300457518 0.026409810189813566 466.3797762181886 1 1.0 0.03700000047683716 1 1.0 0 10000200211172
63 1 85 18 15.472525 1.3820863482491168 0.21886247557469188 463.8477092709374 1 1.0 0.03700000047683716 2 1.0 0 10000200211172
64 1 86 18 133.44363 1.6566620861289745 0.024987302616555577 460.4613542241922 1 1.0 0.03700000047683716 2 1.0 0 10000200211172
65 1 86 19 13.187649 1.9270248677493298 0.08101653430290119 457.12695775835164 1 1.0 0.03700000047683716 2 1.0 0 10000200211172
66 1 87 19 33.79642 2.013655344062892 0.03842212734768868 456.0585401591436 1 1.0 0.03700000047683716 2 1.0 0 10000200211172
67 1 81 12 88.37274 1.1290496914934427 0.045331465768482224 498.10196370216414 1 1.0 0.03700000047683716 1 1.0 0 10000200104828
68 1 81 13 113.00534 1.423119773415661 0.03434404946710813 494.0958977869591 1 1.0 0.03700000047683716 2 1.0 0 10000200104828
69 1 81 14 82.08895 1.7080137198386698 0.024943171073188896 490.21483678016364 1 1.0 0.03700000047683716 2 1.0 0 10000200104828
70 1 82 14 20.838327 1.8583172301468667 0.1581379618770738 488.1672780293873 1 1.0 0.03700000047683716 2 1.0 0 10000200104828
71 1 82 15 144.8123 2.1002149341352205 0.02535599537149638 484.8719474041848 1 1.0 0.03700000047683716 2 1.0 0 10000200104828
72 1 83 15 39.765797 2.369752232963856 0.053811803043856694 481.2000873541732 1 1.0 0.03700000047683716 2 1.0 0 10000200104828
73 1 83 16 67.80174 2.5268319040196783 0.051264101226934936 479.06021813634914 1 1.0 0.03700000047683716 2 1.0 0 10000200104828
74 1 84 16 106.920616 2.7819768411690955 0.04103405009166875 475.5844227427131 1 1.0 0.03700000047683716 2 1.0 0 10000200104828
75 1 84 17 113.62572 3.1040381761327454 0.03629698868847874 471.19703682378594 1 1.0 0.03700000047683716 2 1.0 0 10000200104828
76 1 84 18 93.69442 3.4067852715350524 0.026183962960451883 467.0727654531971 1 1.0 0.03700000047683716 2 1.0 0 10000200104828
77 1 85 18 29.628304 3.5868720611911895 0.041158044874823614 464.61947423395986 1 1.0 0.03700000047683716 2 1.0 0 10000200104828
78 1 85 19 31.671103 3.6763867431947173 0.06705805018201656 463.40003118779646 1 1.0 0.03700000047683716 2 1.0 0 10000200104828
79 1 84 19 21.10264 1.2498287352130402 0.13766043567355563 467.00766354979976 1 1.0 0.03700000047683716 2 1.0 0 10000200036197
80 1 85 19 17.886261 1.7114082738659502 0.15802274770234498 464.10266491261626 1 1.0 0.03700000047683716 2 1.0 0 10000200036197
81 1 50 83 32.98984 1.0 0.11443400576668733 581.510009765625 1 1.0 0.03700000047683716 1 1.0 0 10000200231273
82 1 43 71 27.63008 4.320579767227173 0.0027281807716147692 413.1300048828125 1 1.0 0.03700000047683716 2 1.0 0 10000200299130
83 1 54 85 21.06165 1.0337004370814418 0.2517551093240994 559.9349532092839 1 1.0 0.03700000047683716 1 1.0 0 10000200260304
84 1 55 85 111.08838 1.2451517525185682 0.05804329194917675 554.6325753815496 1 1.0 0.03700000047683716 2 1.0 0 10000200260304
85 1 55 84 49.612137 1.5022862733119373 0.13434387316145363 548.1846401725334 1 1.0 0.03700000047683716 2 1.0 0 10000200260304
86 1 56 84 116.500336 1.7680804846789204 0.06111818397868356 541.5195535535215 1 1.0 0.03700000047683716 2 1.0 0 10000200260304
87 1 57 84 60.957054 2.052027520100922 0.08067565175815213 534.3992646030364 1 1.0 0.03700000047683716 2 1.0 0 10000200260304
88 1 57 83 61.60699 2.248140425568674 0.11539708832147884 529.4815145311815 1 1.0 0.03700000047683716 2 1.0 0 10000200260304
89 1 58 83 115.575806 2.5316479355856476 0.054852057411765784 522.3722471709737 1 1.0 0.03700000047683716 2 1.0 0 10000200260304
90 1 59 83 42.42395 2.7844610343932166 0.10792545266781797 516.0326764432774 1 1.0 0.03700000047683716 2 1.0 0 10000200260304
91 1 59 82 71.68818 2.9670500737322967 0.0567070732554868 511.45405241449134 1 1.0 0.03700000047683716 2 1.0 0 10000200260304
92 1 60 82 29.628523 3.1291655597196835 0.2027616928936705 507.38882559547216 1 1.0 0.03700000047683716 2 1.0 0 10000200260304
93 1 104 35 38.60744 1.0 0.03333360749087462 453.5449981689453 1 1.0 0.03700000047683716 1 1.0 0 10000200075511
94 1 87 19 35.549637 1.5997599363327026 0.061322931211131006 454.760009765625 1 1.0 0.03700000047683716 2 1.0 0 10000200026485
95 1 85 19 76.937546 1.4576355595386017 0.04777303739604409 461.27622880543544 1 1.0 0.03700000047683716 3 1.0 0 10000200133829
96 1 85 20 112.374664 2.583691743350985 0.03983976235941357 457.6006885539012 1 1.0 0.03700000047683716 2 1.0 0 10000200133829
97 1 85 21 118.21649 3.955280837760077 0.020550909013142438 453.12370863270576 1 1.0 0.03700000047683716 2 1.0 0 10000200133829
98 1 85 21 6.9149356 4.699580770729773 0.01941517858318046 450.6942522679422 1 1.0 0.03700000047683716 2 1.0 0 10000200133829
99 1 50 83 56.658466 1.0752851181401253 0.20657217635454686 577.734850057614 1 1.0 0.03700000047683716 2 1.0 0 10000200173050
100 1 50 82 118.99881 1.3086902748180964 0.10832855990650321 566.030787357033 1 1.0 0.03700000047683716 2 1.0 0 10000200173050
101 1 50 81 74.471855 1.5657650085251968 0.11151980359428953 553.1398176592454 1 1.0 0.03700000047683716 2 1.0 0 10000200173050
102 1 51 81 50.17283 1.7313869897943404 0.22439994779759334 544.8347309981012 1 1.0 0.03700000047683716 2 1.0 0 10000200173050
103 1 51 80 118.80151 1.9559122173778674 0.12704770742276003 533.575950862727 1 1.0 0.03700000047683716 2 1.0 0 10000200173050
104 1 51 79 107.724625 2.2569095270003503 0.08320751375271561 518.4824909123616 1 1.0 0.03700000047683716 2 1.0 0 10000200173050
105 1 52 79 26.801552 2.4356617049357365 0.3616061575382528 509.5189927266395 1 1.0 0.03700000047683716 2 1.0 0 10000200173050
106 1 52 78 118.65236 2.62893398262857 0.12558231301953585 499.82738655736364 1 1.0 0.03700000047683716 2 1.0 0 10000200173050
107 1 52 77 104.97994 2.9260859856128 0.136358036800281 484.92674886781555 1 1.0 0.03700000047683716 2 1.0 0 10000200173050
108 1 52 76 109.86066 3.211556249697674 0.14121604008025362 470.61189002941126 1 1.0 0.03700000047683716 2 1.0 0 10000200173050
109 1 52 75 122.978386 3.5209418004640085 0.10038157990511488 455.09780312421515 1 1.0 0.03700000047683716 2 1.0 0 10000200173050
110 1 52 74 62.29466 3.7671239857829284 0.11406889688100964 442.7530384508533 1 1.0 0.03700000047683716 2 1.0 0 10000200173050
111 1 53 74 44.351917 3.908831166974565 0.23554939566004165 435.6471554558267 1 1.0 0.03700000047683716 2 1.0 0 10000200173050
112 1 53 73 112.44001 4.117169027456207 0.09421269298625785 425.200088147257 1 1.0 0.03700000047683716 2 1.0 0 10000200173050
113 1 54 73 46.546543 4.328422618824473 0.10535932925356885 414.6068119990849 1 1.0 0.03700000047683716 2 1.0 0 10000200173050
114 1 54 72 27.055363 4.4262215789173425 0.15034745513500783 409.70269943674845 1 1.0 0.03700000047683716 2 1.0 0 10000200173050
115 1 43 71 13.018934 1.0636244133489186 0.05207013691942876 413.0546250318315 1 1.0 0.03700000047683716 2 1.0 0 10000200153829
116 1 44 71 104.0615 1.635804408504592 0.007336452238267654 412.3767273428953 1 1.0 0.03700000047683716 2 1.0 0 10000200153829
117 1 45 71 27.793413 2.2801883292706098 0.023249230795873016 411.6132851142728 1 1.0 0.03700000047683716 2 1.0 0 10000200153829
118 1 45 72 83.80825 2.825593170526396 0.012843589469704883 410.967109637059 1 1.0 0.03700000047683716 2 1.0 0 10000200153829
119 1 46 72 102.09775 3.734128261967638 0.011689318810690652 409.89071087439726 1 1.0 0.03700000047683716 2 1.0 0 10000200153829
120 1 47 72 104.02477 4.7414631648709555 0.011759598138055893 408.6972577504776 1 1.0 0.03700000047683716 2 1.0 0 10000200153829
121 1 48 72 107.25084 5.773981500003443 0.011528119229361089 407.47396822778103 1 1.0 0.03700000047683716 2 1.0 0 10000200153829
122 1 49 72 106.2891 6.817566132285009 0.011445061213052433 406.2375677656494 1 1.0 0.03700000047683716 2 1.0 0 10000200153829
123 1 50 72 103.811325 7.844341327651774 0.006049525318196024 405.0210825024645 1 1.0 0.03700000047683716 2 1.0 0 10000200153829
124 1 60 82 101.06992 1.2283979039068949 0.053732223774866306 501.3812961398191 1 1.0 0.03700000047683716 2 1.0 0 10000200134278
125 1 60 81 12.836283 1.4858032295342067 0.5439642435378476 495.95058439873446 1 1.0 0.03700000047683716 2 1.0 0 10000200134278
126 1 61 81 133.61737 1.8167593401427156 0.0757526159293293 488.9681055736163 1 1.0 0.03700000047683716 2 1.0 0 10000200134278
127 1 61 80 78.68323 2.2965163540262186 0.05392107772084169 478.84624021665337 1 1.0 0.03700000047683716 2 1.0 0 10000200134278
128 1 62 80 10.30476 2.497611462485475 0.07354179969340688 474.6035557891929 1 1.0 0.03700000047683716 2 1.0 0 10000200134278
129 1 61 80 5.5902996 2.533531179861721 0.17229260043260677 473.8457251949104 1 1.0 0.03700000047683716 2 1.0 0 10000200134278
130 1 62 80 14.611639 2.5791834613820397 0.39794053495945886 472.8825579385396 1 1.0 0.03700000047683716 2 1.0 0 10000200134278
131 1 61 79 107.34568 2.854782622122795 0.05084246385993755 467.06799448916126 1 1.0 0.03700000047683716 2 1.0 0 10000200134278
132 1 61 78 7.1269884 3.11346803379025 0.6893025373658358 461.6102756212005 1 1.0 0.03700000047683716 2 1.0 0 10000200134278
133 1 61 78 95.913185 3.3463182826978137 0.10564116439165491 456.697624425756 1 1.0 0.03700000047683716 2 1.0 0 10000200134278
134 1 61 77 116.607834 3.8265736968836657 0.09220746193844478 446.56524386920603 1 1.0 0.03700000047683716 2 1.0 0 10000200134278
135 1 61 76 108.91186 4.336203212519779 0.062229682205923204 435.8131314666231 1 1.0 0.03700000047683716 2 1.0 0 10000200134278
136 1 61 75 33.243546 4.657446103288187 0.05535700847849376 429.0355811794084 1 1.0 0.03700000047683716 2 1.0 0 10000200134278
137 1 60 75 5.3549767 4.744671052618333 0.08423479012514302 427.1953179475257 1 1.0 0.03700000047683716 2 1.0 0 10000200134278
138 1 55 81 11.583461 1.0171689756236502 0.6707878395898542 523.7064296371537 1 1.0 0.03700000047683716 1 1.0 0 10000200095622
139 1 56 81 130.46893 1.2277186802915188 0.07250384784697313 515.9363849869156 1 1.0 0.03700000047683716 2 1.0 0 10000200095622
140 1 57 81 42.470192 1.4840485924676767 0.2189020767234882 506.4768853122798 1 1.0 0.03700000047683716 2 1.0 0 10000200095622
141 1 57 80 127.494705 1.7359700891253729 0.07873952702957006 497.18007209436115 1 1.0 0.03700000047683716 2 1.0 0 10000200095622
142 1 57 79 56.036522 2.007999632774896 0.11480434367677328 487.1411993081233 1 1.0 0.03700000047683716 2 1.0 0 10000200095622
143 1 58 79 61.57629 2.1823250100533427 0.16398276954532606 480.7079631881305 1 1.0 0.03700000047683716 2 1.0 0 10000200095622
144 1 58 78 123.02584 2.4559418727811937 0.11927033735059704 470.6105125941857 1 1.0 0.03700000047683716 2 1.0 0 10000200095622
145 1 59 77 145.23282 2.8535542650319945 0.05746956041170233 455.93717906398587 1 1.0 0.03700000047683716 2 1.0 0 10000200095622
146 1 60 77 7.3577843 3.079723622028435 1.0 447.5907128214893 1 1.0 0.03700000047683716 2 1.0 0 10000200095622
147 1 60 76 132.3177 3.286750160626815 0.07651376332972191 439.9506857256017 1 1.0 0.03700000047683716 2 1.0 0 10000200095622
148 1 60 75 52.77218 3.5610898478979145 0.05840800514462281 429.826560295023 1 1.0 0.03700000047683716 2 1.0 0 10000200095622
149 1 62 64 15.066893 1.0 0.0001 426.010009765625 1 1.0 0.03700000047683716 1 1.0 0 10000200075718
150 1 62 65 50.633366 1.0 0.012837565648097942 426.010009765625 1 1.0 0.03700000047683716 2 1.0 0 10000200075718
151 1 54 151 61.938 1.0944247872489927 0.04799132519156705 417.028902800358 1 1.0 0.03700000047683716 1 1.0 0 10000700001893
152 1 54 150 91.34534 1.328106004523976 0.02891985981561241 414.05641611382396 1 1.0 0.03700000047683716 2 1.0 0 10000700001893
153 1 55 150 44.879898 1.5357820730002545 0.03451212345987469 411.4147217754594 1 1.0 0.03700000047683716 2 1.0 0 10000700001893
154 1 55 149 34.992878 1.6575484631869997 0.053424141987455064 409.86582119235646 1 1.0 0.03700000047683716 2 1.0 0 10000700001893
155 1 54 149 61.410484 1.804515895364367 0.025356520332788447 407.9963567116608 1 1.0 0.03700000047683716 2 1.0 0 10000700001893
156 1 55 149 18.888042 1.9269312981264692 0.13377816174652862 406.43920051750735 1 1.0 0.03700000047683716 2 1.0 0 10000700001893
157 1 55 148 111.41279 2.1255755773363196 0.04316478847197717 403.9123929195625 1 1.0 0.03700000047683716 2 1.0 0 10000700001893
158 1 56 148 136.58035 2.503642383814496 0.0219415918987166 399.1032834755869 1 1.0 0.03700000047683716 2 1.0 0 10000700001893
159 1 57 148 17.956364 2.7392342278143476 0.16720630363206426 396.10649311343514 1 1.0 0.03700000047683716 2 1.0 0 10000700001893
160 1 57 147 136.87045 2.975268423897819 0.020453791641102337 393.1040759161673 1 1.0 0.03700000047683716 2 1.0 0 10000700001893
161 1 57 146 7.4933996 3.195351891419565 0.2402022598434314 390.3045561911189 1 1.0 0.03700000047683716 2 1.0 0 10000700001893
162 1 58 146 85.32436 3.3368530093654614 0.021243544042265562 388.5046246684715 1 1.0 0.03700000047683716 2 1.0 0 10000700001893
163 1 104 35 63.994434 1.1310502965193718 0.02473181580030998 452.25807288614135 1 1.0 0.03700000047683716 2 1.0 0 10000200046241
164 1 104 36 33.21494 1.3301194475514329 0.06796666943642456 450.6753743233867 1 1.0 0.03700000047683716 2 1.0 0 10000200046241
165 1 103 36 105.441284 1.6140650884459973 0.022454460722116033 448.41786553604123 1 1.0 0.03700000047683716 2 1.0 0 10000200046241
166 1 103 37 39.978405 1.9118612339663756 0.04416293122766211 446.05023836193897 1 1.0 0.03700000047683716 2 1.0 0 10000200046241
167 1 102 37 68.46253 2.1339308341876286 0.046224764713652416 444.28467481138625 1 1.0 0.03700000047683716 2 1.0 0 10000200046241
168 1 101 21 7.604284 1.0 0.0001 470.67999267578125 1 1.0 0.03700000047683716 1 1.0 0 10000200085419
169 1 100 21 8.8044815 1.0 0.49520242699222977 470.67999267578125 1 1.0 0.03700000047683716 2 1.0 0 10000200085419
170 1 87 19 8.199153 1.6135274171829224 0.2539127367750574 452.5800018310547 1 1.0 0.03700000047683716 2 1.0 0 10000200095205
171 1 84 22 10.54894 2.879631996154785 0.002369327836121491 450.55999755859375 1 1.0 0.03700000047683716 2 1.0 0 10000200133979
172 1 72 52 30.876595 1.0 0.010849860216584621 446.370893973377 1 1.0 0.03700000047683716 1 1.0 0 10000200279331
173 1 72 53 30.28825 1.0 0.006302312550429494 446.03588723861634 1 1.0 0.03700000047683716 2 1.0 0 10000200279331
174 1 72 53 41.862648 1.1144267916679382 0.010749366550629203 445.8699951171875 1 1.0 0.03700000047683716 1 1.0 0 10000200095532
175 1 64 47 32.19033 1.0580310690864483 0.16281979139035296 437.00082173057064 1 1.0 0.03700000047683716 1 1.0 0 10000200114745
176 1 65 47 143.70834 1.3751321621473296 0.03369696212324288 431.7595988328996 1 1.0 0.03700000047683716 2 1.0 0 10000200114745
177 1 66 47 18.810123 1.6681120730066903 0.2355847300418791 426.9170642249887 1 1.0 0.03700000047683716 2 1.0 0 10000200114745
178 1 66 46 129.90965 1.936216442645315 0.0386333768422965 422.4856863714729 1 1.0 0.03700000047683716 2 1.0 0 10000200114745
179 1 67 46 38.525997 2.2398635872298245 0.09182414378529047 417.46683780287714 1 1.0 0.03700000047683716 2 1.0 0 10000200114745
180 1 67 45 80.198616 2.4538941952023845 0.07597878023325419 413.92922110001433 1 1.0 0.03700000047683716 2 1.0 0 10000200114745
181 1 68 45 124.29945 2.8225527364455933 0.037810085676344536 407.83582807782454 1 1.0 0.03700000047683716 2 1.0 0 10000200114745
182 1 69 45 33.42777 3.1068953761368103 0.04804511657796032 403.1360550825681 1 1.0 0.03700000047683716 2 1.0 0 10000200114745
183 1 54 72 28.129742 2.7544937133789062 0.09864039921165274 405.63499450683594 1 1.0 0.03700000047683716 2 1.0 0 10000200299129
184 1 50 72 23.93202 1.4412324888500436 0.00588543871936559 404.3930732631184 1 1.0 0.03700000047683716 2 1.0 0 10000200221280
185 1 51 72 101.191025 3.7481148077885322 0.0020068066313789516 404.252222824875 1 1.0 0.03700000047683716 2 1.0 0 10000200221280
186 1 52 72 79.20486 7.074057481374193 0.0037192661629827893 404.0491520053099 1 1.0 0.03700000047683716 2 1.0 0 10000200221280
187 1 60 75 5.7536016 1.0350310576071313 0.40189538726950724 426.74424261294655 1 1.0 0.03700000047683716 3 1.0 0 10000200046553
188 1 61 75 62.208836 1.4488234270277187 0.07464916411690964 424.4318966893905 1 1.0 0.03700000047683716 2 1.0 0 10000200046553
189 1 61 74 74.27876 2.2798342784661196 0.05581164661814895 419.7880591110294 1 1.0 0.03700000047683716 2 1.0 0 10000200046553
190 1 60 74 47.565678 3.021689521892547 0.11629887931811854 415.6424390494323 1 1.0 0.03700000047683716 2 1.0 0 10000200046553
191 1 60 73 115.02118 4.011606770075612 0.06500451852808217 410.1106040455652 1 1.0 0.03700000047683716 2 1.0 0 10000200046553
192 1 60 72 104.73323 5.349591124037644 0.04483640820806442 402.6337076711877 1 1.0 0.03700000047683716 2 1.0 0 10000200046553
193 1 61 72 33.28344 6.189911680701011 0.04717488709757278 397.93784579146836 1 1.0 0.03700000047683716 2 1.0 0 10000200046553
194 1 61 71 12.864802 6.47088736937495 0.049569945887979035 396.3677032844103 1 1.0 0.03700000047683716 2 1.0 0 10000200046553
195 1 62 65 17.258362 1.0511763095855713 0.05244013001153068 425.36000061035156 1 1.0 0.03700000047683716 2 1.0 0 10000200143977
196 1 58 146 25.580664 1.123185464273498 0.03165418524102274 386.69203279015176 1 1.0 0.03700000047683716 2 1.0 0 10000700040260
197 1 58 145 105.53998 1.7546059745598344 0.00986011098651955 385.8822977234041 1 1.0 0.03700000047683716 2 1.0 0 10000700040260
198 1 58 144 62.97049 2.566079845463899 0.011033460852143061 384.8416618265397 1 1.0 0.03700000047683716 2 1.0 0 10000700040260
199 1 59 144 49.535835 3.10786183686337 0.015976242299779862 384.1468793957796 1 1.0 0.03700000047683716 2 1.0 0 10000700040260
200 1 59 143 78.615204 3.7249821847909343 0.006175494663082942 383.3554828890462 1 1.0 0.03700000047683716 2 1.0 0 10000700040260
201 1 102 37 23.805882 1.6756538152694702 0.16402869800900688 441.12001037597656 1 1.0 0.03700000047683716 2 1.0 0 10000200163232
202 1 103 24 26.702627 1.0492708944686953 0.09454502832460675 473.49068419135034 1 1.0 0.03700000047683716 1 1.0 0 10000200230726
203 1 102 23 113.94223 1.308784586351976 0.030336574124467663 470.9660835480861 1 1.0 0.03700000047683716 2 1.0 0 10000200230726
204 1 101 23 78.62498 1.6641039193095584 0.03084826905976368 467.50946663497007 1 1.0 0.03700000047683716 2 1.0 0 10000200230726
205 1 101 22 56.495895 1.91342495352369 0.0366234015873608 465.084022186207 1 1.0 0.03700000047683716 2 1.0 0 10000200230726
206 1 100 22 58.77151 2.126113039390103 0.023701331353634968 463.01495032145743 1 1.0 0.03700000047683716 2 1.0 0 10000200230726
207 1 100 22 106.96342 1.1827229261398315 0.04392160358756407 466.3199920654297 1 1.0 0.03700000047683716 2 1.0 0 10000200153381
208 1 99 20 74.890144 1.1167267853833023 0.09435030677115913 479.4341045606937 1 1.0 0.03700000047683716 1 1.0 0 10000200191930
209 1 98 20 105.96716 1.3986182213326261 0.08443464337402876 472.3681964673099 1 1.0 0.03700000047683716 2 1.0 0 10000200191930
210 1 97 20 123.04578 1.7555669822974116 0.05324374888258021 463.4208968427912 1 1.0 0.03700000047683716 2 1.0 0 10000200191930
211 1 96 20 44.642796 2.016933068713379 0.11537186485105613 456.86947842483454 1 1.0 0.03700000047683716 2 1.0 0 10000200191930
212 1 96 21 87.18871 2.222411003851638 0.0867228371669234 451.7189558485963 1 1.0 0.03700000047683716 2 1.0 0 10000200191930
213 1 95 21 106.34733 2.524063999535889 0.045759559973122234 444.15770328190956 1 1.0 0.03700000047683716 2 1.0 0 10000200191930
214 1 95 22 18.212044 2.718207260769315 0.2905711679289244 439.2912963397994 1 1.0 0.03700000047683716 2 1.0 0 10000200191930
215 1 94 22 117.2381 2.929325182454628 0.06005445414913706 433.9994015134422 1 1.0 0.03700000047683716 2 1.0 0 10000200191930
216 1 93 22 62.973156 3.2102097548507404 0.04389975914541538 426.9587315238894 1 1.0 0.03700000047683716 2 1.0 0 10000200191930
217 1 93 23 7.786512 3.3204985758818566 0.28479498862085406 424.19422514394523 1 1.0 0.03700000047683716 2 1.0 0 10000200191930
218 1 87 19 33.535786 1.0566708808044676 0.06654105980338976 450.49813246717866 1 1.0 0.03700000047683716 2 1.0 0 10000200095207
219 1 88 19 139.75023 1.349500478978349 0.023151495084255628 448.2666257470216 1 1.0 0.03700000047683716 2 1.0 0 10000200095207
220 1 89 19 111.49443 1.7740695393146733 0.014566132231482863 445.03119901004015 1 1.0 0.03700000047683716 2 1.0 0 10000200095207
221 1 89 18 14.619429 1.987184625660812 0.15726558507700142 443.4071563916916 1 1.0 0.03700000047683716 2 1.0 0 10000200095207
222 1 90 18 163.91808 2.288888486011669 0.015316073464756112 441.1080233939729 1 1.0 0.03700000047683716 2 1.0 0 10000200095207
223 1 91 18 31.039255 2.6183396603958777 0.060677163406481265 438.5974421064712 1 1.0 0.03700000047683716 2 1.0 0 10000200095207
224 1 91 19 115.2128 2.8654855165327775 0.026950468771317942 436.71406815019174 1 1.0 0.03700000047683716 2 1.0 0 10000200095207
225 1 91 20 125.90675 3.2729444311362905 0.018419487804375148 433.6090292067385 1 1.0 0.03700000047683716 2 1.0 0 10000200095207
226 1 91 21 54.184208 3.5772734374292305 0.042726201174717725 431.2898912954193 1 1.0 0.03700000047683716 2 1.0 0 10000200095207
227 1 92 21 125.59204 3.881070648481035 0.01749057162794672 428.97480592749645 1 1.0 0.03700000047683716 2 1.0 0 10000200095207
228 1 92 22 44.989197 4.169329660720379 0.03853663944641844 426.77812933821264 1 1.0 0.03700000047683716 2 1.0 0 10000200095207
229 1 93 22 89.64247 4.396838802238576 0.03422185111057298 425.04439688302017 1 1.0 0.03700000047683716 2 1.0 0 10000200095207
230 1 85 22 18.168941 2.896080732345581 0.02476737284319001 450.5350036621094 1 1.0 0.03700000047683716 2 1.0 0 10000200279219
231 1 72 53 30.256058 1.0772980451583862 0.02462300685726332 445.8450012207031 1 1.0 0.03700000047683716 2 1.0 0 10000200085809
232 1 72 53 17.22279 1.1641402840614319 0.04325635552535399 445.4199981689453 1 1.0 0.03700000047683716 2 1.0 0 10000200260217
233 1 69 45 10.996692 2.0964932441711426 0.24051972360223814 401.53001403808594 1 1.0 0.03700000047683716 2 1.0 0 10000200201879
234 1 54 72 50.072697 1.4272191735927346 0.032590164140135304 402.8602655589146 1 1.0 0.03700000047683716 2 1.0 0 10000200308815
235 1 55 72 110.2329 2.7949431060117558 0.01633149448019896 401.22838815498545 1 1.0 0.03700000047683716 2 1.0 0 10000200308815
236 1 56 72 66.61435 4.303800129211542 0.01290961374378522 399.4281201158318 1 1.0 0.03700000047683716 2 1.0 0 10000200308815