# DIS package for  MODFLOW-2005, generated by Flopy.
         1       100       160         1         4         2
  0
INTERNAL               1 (160E15.6) -1 #delr                          
   2.500000E+02   2.500000E+02   2.500000E+02   2.500000E+02   2.500000E+02   2.500000E+02   2.500000E+02   2.500000E+02   2.500000E+02   2.500000E+02   2.500000E+02   2.500000E+02   2.500000E+02   2.500000E+02   2.500000E+02   2.500000E+02   2.500000E+02   2.500000E+02   2.500000E+02   2.500000E+02   2.500000E+02   2.500000E+02   2.500000E+02   2.500000E+02   2.500000E+02   2.500000E+02   2.500000E+02   2.500000E+02   2.500000E+02   2.500000E+02   2.500000E+02   2.500000E+02   2.500000E+02   2.500000E+02   2.500000E+02   2.500000E+02   2.500000E+02   2.500000E+02   2.500000E+02   2.500000E+02   2.500000E+02   2.500000E+02   2.500000E+02   2.500000E+02   2.500000E+02   2.500000E+02   2.500000E+02   2.500000E+02   2.500000E+02   2.500000E+02   2.500000E+02   2.500000E+02   2.500000E+02   2.500000E+02   2.500000E+02   2.500000E+02   2.500000E+02   2.500000E+02   2.500000E+02   2.500000E+02   2.500000E+02   2.500000E+02   2.500000E+02   2.500000E+02   2.500000E+02   2.500000E+02   2.500000E+02   2.500000E+02   2.500000E+02   2.500000E+02   2.500000E+02   2.500000E+02   2.500000E+02   2.500000E+02   2.500000E+02   2.500000E+02   2.500000E+02   2.500000E+02   2.500000E+02   2.500000E+02   2.500000E+02   2.500000E+02   2.500000E+02   2.500000E+02   2.500000E+02   2.500000E+02   2.500000E+02   2.500000E+02   2.500000E+02   2.500000E+02   2.500000E+02   2.500000E+02   2.500000E+02   2.500000E+02   2.500000E+02   2.500000E+02   2.500000E+02   2.500000E+02   2.500000E+02   2.500000E+02   2.500000E+02   2.500000E+02   2.500000E+02   2.500000E+02   2.500000E+02   2.500000E+02   2.500000E+02   2.500000E+02   2.500000E+02   2.500000E+02   2.500000E+02   2.500000E+02   2.500000E+02   2.500000E+02   2.500000E+02   2.500000E+02   2.500000E+02   2.500000E+02   2.500000E+02   2.500000E+02   2.500000E+02   2.500000E+02   2.500000E+02   2.500000E+02   2.500000E+02   2.500000E+02   2.500000E+02   2.500000E+02   2.500000E+02   2.500000E+02   2.500000E+02   2.500000E+02   2.500000E+02   2.500000E+02   2.500000E+02   2.500000E+02   2.500000E+02   2.500000E+02   2.500000E+02   2.500000E+02   2.500000E+02   2.500000E+02   2.500000E+02   2.500000E+02   2.500000E+02   2.500000E+02   2.500000E+02   2.500000E+02   2.500000E+02   2.500000E+02   2.500000E+02   2.500000E+02   2.500000E+02   2.500000E+02   2.500000E+02   2.500000E+02   2.500000E+02   2.500000E+02   2.500000E+02   2.500000E+02
INTERNAL               1 (100E15.6) -1 #delc                          
   2.500000E+02   2.500000E+02   2.500000E+02   2.500000E+02   2.500000E+02   2.500000E+02   2.500000E+02   2.500000E+02   2.500000E+02   2.500000E+02   2.500000E+02   2.500000E+02   2.500000E+02   2.500000E+02   2.500000E+02   2.500000E+02   2.500000E+02   2.500000E+02   2.500000E+02   2.500000E+02   2.500000E+02   2.500000E+02   2.500000E+02   2.500000E+02   2.500000E+02   2.500000E+02   2.500000E+02   2.500000E+02   2.500000E+02   2.500000E+02   2.500000E+02   2.500000E+02   2.500000E+02   2.500000E+02   2.500000E+02   2.500000E+02   2.500000E+02   2.500000E+02   2.500000E+02   2.500000E+02   2.500000E+02   2.500000E+02   2.500000E+02   2.500000E+02   2.500000E+02   2.500000E+02   2.500000E+02   2.500000E+02   2.500000E+02   2.500000E+02   2.500000E+02   2.500000E+02   2.500000E+02   2.500000E+02   2.500000E+02   2.500000E+02   2.500000E+02   2.500000E+02   2.500000E+02   2.500000E+02   2.500000E+02   2.500000E+02   2.500000E+02   2.500000E+02   2.500000E+02   2.500000E+02   2.500000E+02   2.500000E+02   2.500000E+02   2.500000E+02   2.500000E+02   2.500000E+02   2.500000E+02   2.500000E+02   2.500000E+02   2.500000E+02   2.500000E+02   2.500000E+02   2.500000E+02   2.500000E+02   2.500000E+02   2.500000E+02   2.500000E+02   2.500000E+02   2.500000E+02   2.500000E+02   2.500000E+02   2.500000E+02   2.500000E+02   2.500000E+02   2.500000E+02   2.500000E+02   2.500000E+02   2.500000E+02   2.500000E+02   2.500000E+02   2.500000E+02   2.500000E+02   2.500000E+02   2.500000E+02
INTERNAL               1 (160E15.6) -1 #model_top                     
   7.102150E+02   7.109186E+02   7.102948E+02   7.106986E+02   7.155952E+02   7.158883E+02   7.195117E+02   7.242505E+02   7.239034E+02   7.192120E+02   7.182795E+02   7.206100E+02   7.195511E+02   7.252772E+02   7.345489E+02   7.373533E+02   7.483192E+02   7.473160E+02   7.847543E+02   8.333425E+02   7.829750E+02   7.790123E+02   8.012613E+02   8.356684E+02   8.474805E+02   8.456541E+02   8.377357E+02   8.428265E+02   8.389025E+02   8.232393E+02   8.345995E+02   8.418127E+02   8.542035E+02   8.607982E+02   8.716877E+02   8.824865E+02   8.962992E+02   9.079196E+02   9.117613E+02   9.171077E+02   9.207474E+02   9.227763E+02   9.239828E+02   9.287363E+02   9.365233E+02   9.410785E+02   9.458781E+02   9.501388E+02   9.507841E+02   9.496866E+02   9.549506E+02   9.619410E+02   9.666539E+02   9.713738E+02   9.746628E+02   9.771709E+02   9.783274E+02   9.780047E+02   9.765453E+02   9.730816E+02   9.569863E+02   9.631558E+02   9.789640E+02   9.831160E+02   9.887118E+02   9.956320E+02   9.891923E+02   9.847563E+02   1.001535E+03   1.003941E+03   9.862811E+02   9.750854E+02   9.917170E+02   1.011251E+03   1.022466E+03   1.024143E+03   1.014124E+03   1.000371E+03   1.018249E+03   1.027138E+03   1.017824E+03   1.043723E+03   1.057303E+03   1.061448E+03   1.059556E+03   1.062187E+03   1.071691E+03   1.076163E+03   1.079411E+03   1.081374E+03   1.083962E+03   1.086456E+03   1.087810E+03   1.087811E+03   1.067147E+03   1.033723E+03   1.033372E+03   1.034736E+03   1.032524E+03   1.013622E+03   1.023903E+03   1.036557E+03   1.053801E+03   1.074146E+03   1.091253E+03   1.101226E+03   1.083829E+03   1.070913E+03   1.091055E+03   1.101056E+03   1.108125E+03   1.109008E+03   1.110516E+03   1.111308E+03   1.111702E+03   1.112365E+03   1.113080E+03   1.114050E+03   1.115445E+03   1.117256E+03   1.119915E+03   1.126896E+03   1.135150E+03   1.149282E+03   1.165124E+03   1.170000E+03   1.172490E+03   1.168562E+03   1.161183E+03   1.154300E+03   1.142946E+03   1.139595E+03   1.132167E+03   1.136282E+03   1.142350E+03   1.144163E+03   1.144352E+03   1.146707E+03   1.151233E+03   1.158074E+03   1.160922E+03   1.161243E+03   1.157022E+03   1.155538E+03   1.156670E+03   1.160222E+03   1.173349E+03   1.168765E+03   1.157069E+03   1.155056E+03   1.148104E+03   1.147230E+03   1.148551E+03   1.145221E+03   1.141514E+03   1.135372E+03   1.121976E+03   1.122680E+03   1.115197E+03   1.111287E+03
   7.115090E+02   7.144333E+02   7.122962E+02   7.117405E+02   7.195582E+02   7.211036E+02   7.151248E+02   7.166750E+02   7.180082E+02   7.175573E+02   7.208129E+02   7.220749E+02   7.264193E+02   7.376046E+02   7.518331E+02   7.579669E+02   7.767363E+02   7.916873E+02   7.576192E+02   8.085411E+02   8.341422E+02   8.046912E+02   7.985458E+02   7.867798E+02   8.001909E+02   8.374556E+02   8.585661E+02   8.596627E+02   8.607590E+02   8.602720E+02   8.589822E+02   8.605425E+02   8.582410E+02   8.692160E+02   8.816240E+02   8.838287E+02   8.823416E+02   8.901001E+02   9.068986E+02   9.170056E+02   9.161301E+02   9.154086E+02   9.175130E+02   9.211644E+02   9.331452E+02   9.413452E+02   9.470912E+02   9.517451E+02   9.546855E+02   9.574105E+02   9.610027E+02   9.659418E+02   9.707144E+02   9.752493E+02   9.783474E+02   9.819760E+02   9.839862E+02   9.840403E+02   9.834809E+02   9.803129E+02   9.564684E+02   9.762487E+02   9.832429E+02   9.891255E+02   9.996765E+02   1.003350E+03   1.000152E+03   9.954258E+02   9.867516E+02   9.997374E+02   1.009060E+03   1.003718E+03   9.850005E+02   9.981910E+02   1.008410E+03   1.020984E+03   1.030619E+03   1.028491E+03   1.012305E+03   1.028564E+03   1.026698E+03   1.045525E+03   1.062075E+03   1.068464E+03   1.068350E+03   1.069669E+03   1.074760E+03   1.079347E+03   1.082549E+03   1.084875E+03   1.087248E+03   1.089825E+03   1.096588E+03   1.101636E+03   1.081742E+03   1.063344E+03   1.057307E+03   1.062153E+03   1.063650E+03   1.062182E+03   1.057589E+03   1.065473E+03   1.082326E+03   1.095005E+03   1.103250E+03   1.104683E+03   1.093905E+03   1.073533E+03   1.096029E+03   1.107467E+03   1.110375E+03   1.111222E+03   1.112159E+03   1.112970E+03   1.113598E+03   1.114436E+03   1.115468E+03   1.116793E+03   1.118224E+03   1.124447E+03   1.139706E+03   1.152910E+03   1.163121E+03   1.175406E+03   1.188738E+03   1.190103E+03   1.182567E+03   1.175030E+03   1.168865E+03   1.163434E+03   1.155280E+03   1.148650E+03   1.136518E+03   1.139963E+03   1.145053E+03   1.148264E+03   1.151172E+03   1.149552E+03   1.151830E+03   1.159436E+03   1.163304E+03   1.164988E+03   1.160411E+03   1.160782E+03   1.163332E+03   1.167675E+03   1.178910E+03   1.178034E+03   1.160277E+03   1.150062E+03   1.148466E+03   1.149386E+03   1.149611E+03   1.149414E+03   1.154529E+03   1.144425E+03   1.119919E+03   1.118398E+03   1.113349E+03   1.115629E+03
   7.370089E+02   7.291554E+02   7.249874E+02   7.245395E+02   7.254756E+02   7.244008E+02   7.180546E+02   7.201187E+02   7.241176E+02   7.252599E+02   7.295567E+02   7.481144E+02   7.834453E+02   7.853541E+02   7.963801E+02   8.153533E+02   8.137372E+02   8.330043E+02   7.705500E+02   7.995271E+02   8.452405E+02   8.507753E+02   8.465051E+02   7.966005E+02   8.087429E+02   8.143303E+02   8.440268E+02   8.590106E+02   8.638251E+02   8.659979E+02   8.670821E+02   8.726390E+02   8.784940E+02   8.791497E+02   8.783517E+02   8.777109E+02   8.889603E+02   8.936019E+02   8.957891E+02   9.015883E+02   9.070328E+02   9.179304E+02   9.244212E+02   9.299029E+02   9.314769E+02   9.370955E+02   9.453570E+02   9.512131E+02   9.558228E+02   9.600774E+02   9.653230E+02   9.706718E+02   9.766525E+02   9.822383E+02   9.865783E+02   9.893861E+02   9.912652E+02   9.947104E+02   9.925140E+02   9.891162E+02   9.700904E+02   9.722954E+02   9.854520E+02   9.959503E+02   1.002822E+03   1.006054E+03   1.009755E+03   1.010066E+03   9.974718E+02   9.931021E+02   1.002737E+03   1.010119E+03   1.011393E+03   9.964827E+02   1.003236E+03   1.011098E+03   1.030637E+03   1.031703E+03   1.036670E+03   1.032634E+03   1.048481E+03   1.047642E+03   1.060888E+03   1.070064E+03   1.072144E+03   1.073152E+03   1.077166E+03   1.080875E+03   1.084996E+03   1.087894E+03   1.093233E+03   1.093758E+03   1.097444E+03   1.099981E+03   1.101570E+03   1.100645E+03   1.079535E+03   1.086931E+03   1.088331E+03   1.087850E+03   1.090313E+03   1.093785E+03   1.098884E+03   1.103484E+03   1.105086E+03   1.095352E+03   1.078769E+03   1.087573E+03   1.106076E+03   1.110745E+03   1.111829E+03   1.112765E+03   1.113652E+03   1.114521E+03   1.115545E+03   1.116451E+03   1.117507E+03   1.119042E+03   1.127642E+03   1.146474E+03   1.164507E+03   1.178655E+03   1.187944E+03   1.193901E+03   1.198782E+03   1.195547E+03   1.183065E+03   1.176046E+03   1.171176E+03   1.167462E+03   1.161266E+03   1.154897E+03   1.142386E+03   1.142265E+03   1.149482E+03   1.149991E+03   1.152651E+03   1.152910E+03   1.154971E+03   1.159207E+03   1.160861E+03   1.166555E+03   1.174688E+03   1.171392E+03   1.169282E+03   1.168236E+03   1.164707E+03   1.154533E+03   1.151356E+03   1.148436E+03   1.148446E+03   1.148902E+03   1.149652E+03   1.149561E+03   1.149609E+03   1.120417E+03   1.117233E+03   1.114919E+03   1.115153E+03   1.118141E+03
   8.066942E+02   7.964297E+02   7.718853E+02   7.661993E+02   7.685431E+02   7.387935E+02   7.281810E+02   7.311393E+02   7.652127E+02   7.812076E+02   7.597476E+02   7.785173E+02   8.268575E+02   8.227788E+02   7.995782E+02   8.408256E+02   8.445002E+02   8.255410E+02   7.815956E+02   7.880369E+02   8.263494E+02   8.528054E+02   8.542357E+02   8.311127E+02   8.057814E+02   8.373863E+02   8.285650E+02   8.565482E+02   8.646998E+02   8.720063E+02   8.803662E+02   8.882064E+02   8.938790E+02   8.943680E+02   9.007473E+02   9.013722E+02   8.895884E+02   8.887297E+02   8.945201E+02   9.016187E+02   9.130959E+02   9.193032E+02   9.218322E+02   9.274443E+02   9.389352E+02   9.433652E+02   9.491221E+02   9.524929E+02   9.569308E+02   9.620818E+02   9.692397E+02   9.749950E+02   9.830602E+02   9.949139E+02   9.994754E+02   9.956092E+02   9.957973E+02   9.963703E+02   9.855224E+02   9.833350E+02   9.771996E+02   9.639695E+02   9.777202E+02   9.875952E+02   9.849271E+02   9.912573E+02   1.003387E+03   1.010408E+03   1.010876E+03   1.000599E+03   1.006559E+03   1.011207E+03   1.020063E+03   1.001237E+03   1.017839E+03   1.016440E+03   1.009819E+03   1.026034E+03   1.040140E+03   1.047668E+03   1.052437E+03   1.060153E+03   1.064114E+03   1.071113E+03   1.074393E+03   1.077479E+03   1.080742E+03   1.084560E+03   1.088918E+03   1.096306E+03   1.097966E+03   1.097149E+03   1.099555E+03   1.099855E+03   1.097894E+03   1.090206E+03   1.090867E+03   1.097878E+03   1.099770E+03   1.100772E+03   1.101293E+03   1.101947E+03   1.103107E+03   1.104869E+03   1.097005E+03   1.084916E+03   1.096478E+03   1.098248E+03   1.108149E+03   1.110987E+03   1.112817E+03   1.114138E+03   1.115125E+03   1.116153E+03   1.117250E+03   1.118320E+03   1.120573E+03   1.131089E+03   1.149116E+03   1.165312E+03   1.183567E+03   1.207623E+03   1.215898E+03   1.208649E+03   1.198342E+03   1.194029E+03   1.182106E+03   1.176698E+03   1.173433E+03   1.171362E+03   1.165783E+03   1.158051E+03   1.145841E+03   1.145536E+03   1.154277E+03   1.154250E+03   1.156226E+03   1.157428E+03   1.157571E+03   1.159635E+03   1.162518E+03   1.169758E+03   1.179169E+03   1.170459E+03   1.164079E+03   1.159465E+03   1.155480E+03   1.151941E+03   1.149589E+03   1.148569E+03   1.150181E+03   1.150127E+03   1.149946E+03   1.147418E+03   1.134479E+03   1.119064E+03   1.117708E+03   1.116534E+03   1.116774E+03   1.120718E+03
   8.229431E+02   8.175289E+02   8.132285E+02   8.197615E+02   8.188804E+02   7.968316E+02   7.861203E+02   7.932829E+02   8.276022E+02   8.332560E+02   8.238210E+02   8.084196E+02   8.331717E+02   8.300878E+02   8.168269E+02   8.417390E+02   8.488906E+02   8.399927E+02   8.141883E+02   7.979590E+02   7.849890E+02   8.379408E+02   8.548677E+02   8.535848E+02   8.258375E+02   8.193364E+02   8.505114E+02   8.362804E+02   8.555294E+02   8.718767E+02   8.781025E+02   8.821447E+02   8.817385E+02   8.865059E+02   8.929927E+02   9.029445E+02   9.063591E+02   9.008961E+02   9.049941E+02   9.055609E+02   9.042081E+02   9.096107E+02   9.169058E+02   9.278859E+02   9.341266E+02   9.409968E+02   9.486991E+02   9.532162E+02   9.574555E+02   9.635458E+02   9.709188E+02   9.772684E+02   9.860762E+02   9.988708E+02   1.001514E+03   9.992083E+02   9.991102E+02   9.990662E+02   9.858257E+02   9.824108E+02   9.810035E+02   9.699329E+02   9.793518E+02   9.813890E+02   9.814974E+02   9.928422E+02   1.001132E+03   1.007780E+03   1.013219E+03   1.006416E+03   1.003519E+03   1.015404E+03   1.023581E+03   1.010646E+03   1.022181E+03   1.031611E+03   1.021253E+03   1.025111E+03   1.042543E+03   1.051805E+03   1.057261E+03   1.062054E+03   1.070532E+03   1.074446E+03   1.077361E+03   1.080122E+03   1.085181E+03   1.090887E+03   1.098250E+03   1.100053E+03   1.099900E+03   1.099902E+03   1.100670E+03   1.100514E+03   1.097147E+03   1.097078E+03   1.100801E+03   1.101569E+03   1.102239E+03   1.102962E+03   1.103488E+03   1.104101E+03   1.104590E+03   1.104030E+03   1.093494E+03   1.096020E+03   1.109559E+03   1.111455E+03   1.107167E+03   1.110922E+03   1.113062E+03   1.115313E+03   1.116568E+03   1.117602E+03   1.118791E+03   1.122984E+03   1.136750E+03   1.155063E+03   1.170163E+03   1.182894E+03   1.208847E+03   1.222598E+03   1.222375E+03   1.203997E+03   1.194549E+03   1.188198E+03   1.179723E+03   1.176278E+03   1.173964E+03   1.171627E+03   1.167014E+03   1.160319E+03   1.146614E+03   1.150330E+03   1.159896E+03   1.158760E+03   1.160343E+03   1.160949E+03   1.160418E+03   1.161642E+03   1.166388E+03   1.171159E+03   1.172931E+03   1.168415E+03   1.161283E+03   1.159802E+03   1.158493E+03   1.156850E+03   1.153950E+03   1.154650E+03   1.155696E+03   1.154755E+03   1.152466E+03   1.149210E+03   1.127746E+03   1.119938E+03   1.119907E+03   1.118123E+03   1.113068E+03   1.123165E+03
   8.225715E+02   8.235519E+02   8.205125E+02   8.230617E+02   8.290033E+02   8.263287E+02   8.293978E+02   8.331569E+02   8.397640E+02   8.413542E+02   8.418915E+02   8.401297E+02   8.405671E+02   8.423865E+02   8.329062E+02   8.414919E+02   8.490010E+02   8.506989E+02   8.499841E+02   8.404380E+02   8.083179E+02   7.932823E+02   8.345604E+02   8.573457E+02   8.601861E+02   8.231973E+02   8.536255E+02   8.589249E+02   8.556589E+02   8.605399E+02   8.677753E+02   8.757485E+02   8.821327E+02   8.927256E+02   9.007709E+02   9.034423E+02   9.084744E+02   9.103093E+02   9.128690E+02   9.133282E+02   9.139312E+02   9.255633E+02   9.240654E+02   9.219131E+02   9.362334E+02   9.443060E+02   9.491118E+02   9.524655E+02   9.576158E+02   9.637350E+02   9.702495E+02   9.769380E+02   9.834863E+02   9.935897E+02   1.003391E+03   1.006575E+03   1.005901E+03   9.968704E+02   9.880045E+02   9.878234E+02   9.996626E+02   9.841307E+02   9.801583E+02   9.965800E+02   9.889637E+02   9.970227E+02   1.011315E+03   1.015751E+03   1.021053E+03   1.019418E+03   1.004631E+03   1.007523E+03   1.017604E+03   1.015987E+03   1.023263E+03   1.031746E+03   1.028933E+03   1.037088E+03   1.035956E+03   1.044600E+03   1.057405E+03   1.068693E+03   1.073473E+03   1.077995E+03   1.081337E+03   1.085509E+03   1.092946E+03   1.099722E+03   1.100543E+03   1.101160E+03   1.101635E+03   1.101727E+03   1.100417E+03   1.099950E+03   1.099634E+03   1.100344E+03   1.102308E+03   1.103498E+03   1.104322E+03   1.105013E+03   1.105695E+03   1.106506E+03   1.106875E+03   1.104446E+03   1.090138E+03   1.094970E+03   1.111118E+03   1.110652E+03   1.110005E+03   1.112485E+03   1.114692E+03   1.116698E+03   1.117951E+03   1.119483E+03   1.126554E+03   1.142471E+03   1.161451E+03   1.174005E+03   1.190171E+03   1.203517E+03   1.219729E+03   1.226952E+03   1.213902E+03   1.197031E+03   1.190540E+03   1.184087E+03   1.178383E+03   1.174740E+03   1.171988E+03   1.171184E+03   1.166843E+03   1.157854E+03   1.147474E+03   1.156092E+03   1.162576E+03   1.166353E+03   1.166219E+03   1.162886E+03   1.163062E+03   1.165694E+03   1.168904E+03   1.170537E+03   1.168582E+03   1.165643E+03   1.163710E+03   1.164259E+03   1.162761E+03   1.160732E+03   1.158071E+03   1.159975E+03   1.162155E+03   1.158803E+03   1.152898E+03   1.141719E+03   1.126583E+03   1.122523E+03   1.121891E+03   1.120827E+03   1.118936E+03   1.131838E+03
   8.223780E+02   8.246967E+02   8.256057E+02   8.291686E+02   8.306481E+02   8.327783E+02   8.345136E+02   8.368308E+02   8.393275E+02   8.411110E+02   8.424771E+02   8.425555E+02   8.425490E+02   8.430824E+02   8.433307E+02   8.457039E+02   8.489935E+02   8.512598E+02   8.520052E+02   8.485620E+02   8.496543E+02   8.315706E+02   7.964951E+02   8.418383E+02   8.640073E+02   8.442863E+02   8.402234E+02   8.628626E+02   8.671966E+02   8.731866E+02   8.799756E+02   8.867972E+02   8.918112E+02   8.949479E+02   8.979449E+02   9.062989E+02   9.118884E+02   9.143367E+02   9.197093E+02   9.226697E+02   9.224899E+02   9.259448E+02   9.352615E+02   9.335043E+02   9.279525E+02   9.428572E+02   9.476755E+02   9.510274E+02   9.574307E+02   9.630809E+02   9.687443E+02   9.760547E+02   9.829501E+02   9.912443E+02   1.003939E+03   1.011092E+03   1.003794E+03   9.920712E+02   9.946805E+02   9.911091E+02   1.007257E+03   9.893542E+02   9.859625E+02   1.000253E+03   1.000464E+03   9.877769E+02   9.924725E+02   1.002117E+03   1.015419E+03   1.024106E+03   1.016472E+03   1.009655E+03   1.016126E+03   1.023170E+03   1.028815E+03   1.036009E+03   1.039315E+03   1.046362E+03   1.052662E+03   1.060450E+03   1.069219E+03   1.073444E+03   1.077061E+03   1.082290E+03   1.087238E+03   1.094787E+03   1.100158E+03   1.101039E+03   1.101970E+03   1.102499E+03   1.102997E+03   1.103132E+03   1.101570E+03   1.101873E+03   1.101977E+03   1.102182E+03   1.103718E+03   1.105583E+03   1.106646E+03   1.107208E+03   1.107687E+03   1.108859E+03   1.109424E+03   1.104510E+03   1.089222E+03   1.101964E+03   1.110304E+03   1.110183E+03   1.112120E+03   1.114460E+03   1.116838E+03   1.118508E+03   1.121170E+03   1.132730E+03   1.148520E+03   1.164122E+03   1.170396E+03   1.181271E+03   1.201400E+03   1.215516E+03   1.219562E+03   1.214320E+03   1.198177E+03   1.191339E+03   1.184799E+03   1.179804E+03   1.176524E+03   1.173173E+03   1.170161E+03   1.167474E+03   1.162932E+03   1.154741E+03   1.150522E+03   1.160773E+03   1.164777E+03   1.168345E+03   1.165650E+03   1.162397E+03   1.163673E+03   1.168146E+03   1.169806E+03   1.169146E+03   1.167100E+03   1.165778E+03   1.167592E+03   1.169469E+03   1.165969E+03   1.160676E+03   1.158797E+03   1.159907E+03   1.157872E+03   1.156299E+03   1.153339E+03   1.140542E+03   1.127597E+03   1.125657E+03   1.124827E+03   1.122947E+03   1.122996E+03   1.141557E+03
   8.224849E+02   8.160635E+02   8.191581E+02   8.249385E+02   8.298054E+02   8.320840E+02   8.344763E+02   8.365957E+02   8.391610E+02   8.411111E+02   8.420657E+02   8.427757E+02   8.434333E+02   8.442181E+02   8.454418E+02   8.474944E+02   8.496340E+02   8.514466E+02   8.527134E+02   8.525441E+02   8.530901E+02   8.535875E+02   8.315298E+02   8.069918E+02   8.555808E+02   8.630798E+02   8.496475E+02   8.613279E+02   8.685388E+02   8.770191E+02   8.848130E+02   8.919079E+02   8.982117E+02   8.996585E+02   8.917361E+02   9.012040E+02   9.139047E+02   9.205986E+02   9.205499E+02   9.235577E+02   9.298691E+02   9.323262E+02   9.338064E+02   9.393758E+02   9.432247E+02   9.331150E+02   9.393210E+02   9.496812E+02   9.574329E+02   9.622980E+02   9.657259E+02   9.715276E+02   9.799395E+02   9.891957E+02   1.002553E+03   1.007616E+03   9.991503E+02   9.969088E+02   9.987497E+02   9.971508E+02   1.000145E+03   9.845898E+02   9.904301E+02   1.002809E+03   1.010364E+03   1.003851E+03   9.922001E+02   9.935004E+02   9.992864E+02   1.018552E+03   1.029295E+03   1.019165E+03   1.019872E+03   1.026779E+03   1.035132E+03   1.044449E+03   1.050945E+03   1.060586E+03   1.066762E+03   1.071523E+03   1.075419E+03   1.078715E+03   1.080994E+03   1.087708E+03   1.093194E+03   1.099266E+03   1.099593E+03   1.100246E+03   1.101020E+03   1.101622E+03   1.103389E+03   1.104076E+03   1.104017E+03   1.104529E+03   1.104997E+03   1.105754E+03   1.106603E+03   1.107600E+03   1.108839E+03   1.109565E+03   1.109318E+03   1.110091E+03   1.110558E+03   1.099579E+03   1.092184E+03   1.107961E+03   1.111367E+03   1.112178E+03   1.114729E+03   1.117068E+03   1.119313E+03   1.127091E+03   1.139931E+03   1.152667E+03   1.161623E+03   1.167375E+03   1.173921E+03   1.187528E+03   1.206927E+03   1.212915E+03   1.203440E+03   1.195505E+03   1.188980E+03   1.185019E+03   1.180152E+03   1.176331E+03   1.173877E+03   1.171090E+03   1.168128E+03   1.162869E+03   1.156793E+03   1.150400E+03   1.152363E+03   1.160951E+03   1.162459E+03   1.162843E+03   1.161165E+03   1.160717E+03   1.163688E+03   1.167088E+03   1.167409E+03   1.167209E+03   1.167139E+03   1.167284E+03   1.168936E+03   1.170084E+03   1.168038E+03   1.162574E+03   1.159434E+03   1.158249E+03   1.157575E+03   1.157717E+03   1.158034E+03   1.148273E+03   1.129323E+03   1.127538E+03   1.127941E+03   1.126401E+03   1.124791E+03   1.141088E+03
   8.184445E+02   8.079513E+02   8.224312E+02   8.254282E+02   8.302284E+02   8.314172E+02   8.327497E+02   8.350181E+02   8.366046E+02   8.379437E+02   8.398532E+02   8.409955E+02   8.432084E+02   8.446557E+02   8.459049E+02   8.475879E+02   8.492919E+02   8.511885E+02   8.531878E+02   8.544341E+02   8.556420E+02   8.570872E+02   8.592301E+02   8.314055E+02   8.343726E+02   8.626522E+02   8.627280E+02   8.550097E+02   8.632309E+02   8.735773E+02   8.844165E+02   8.916594E+02   8.912315E+02   8.788452E+02   8.796165E+02   8.897502E+02   9.033666E+02   9.123893E+02   9.168457E+02   9.224807E+02   9.298708E+02   9.351375E+02   9.412587E+02   9.442997E+02   9.487504E+02   9.509777E+02   9.488337E+02   9.441935E+02   9.537292E+02   9.605484E+02   9.639283E+02   9.700858E+02   9.763776E+02   9.851295E+02   9.974465E+02   1.006453E+03   1.003926E+03   1.004117E+03   1.005019E+03   1.003762E+03   1.002558E+03   9.921738E+02   9.850851E+02   1.004467E+03   1.019328E+03   1.019156E+03   1.001245E+03   9.968464E+02   1.008109E+03   1.005173E+03   1.017347E+03   1.026438E+03   1.028319E+03   1.032402E+03   1.042671E+03   1.056598E+03   1.063944E+03   1.070129E+03   1.073415E+03   1.076128E+03   1.080348E+03   1.083825E+03   1.087545E+03   1.090785E+03   1.092387E+03   1.094228E+03   1.096261E+03   1.098361E+03   1.099640E+03   1.100189E+03   1.101968E+03   1.104463E+03   1.106186E+03   1.107535E+03   1.108282E+03   1.108542E+03   1.108992E+03   1.109694E+03   1.110837E+03   1.111199E+03   1.111173E+03   1.111336E+03   1.109715E+03   1.091824E+03   1.099184E+03   1.109251E+03   1.112227E+03   1.115218E+03   1.117639E+03   1.121254E+03   1.133617E+03   1.149635E+03   1.160897E+03   1.168726E+03   1.175994E+03   1.180398E+03   1.185628E+03   1.194578E+03   1.203710E+03   1.203892E+03   1.189894E+03   1.184799E+03   1.183055E+03   1.179367E+03   1.174984E+03   1.172224E+03   1.170236E+03   1.166593E+03   1.161227E+03   1.157444E+03   1.152831E+03   1.148995E+03   1.151261E+03   1.156994E+03   1.159556E+03   1.160313E+03   1.160885E+03   1.163079E+03   1.166079E+03   1.168641E+03   1.168706E+03   1.168992E+03   1.169156E+03   1.168319E+03   1.169081E+03   1.169911E+03   1.169824E+03   1.166446E+03   1.161539E+03   1.160100E+03   1.160327E+03   1.163306E+03   1.163095E+03   1.159813E+03   1.139322E+03   1.129535E+03   1.131120E+03   1.131385E+03   1.129155E+03   1.128898E+03
   7.882120E+02   7.943091E+02   7.998245E+02   8.103578E+02   8.213675E+02   8.274221E+02   8.307121E+02   8.320253E+02   8.304875E+02   8.327854E+02   8.400495E+02   8.414642E+02   8.431887E+02   8.447985E+02   8.461556E+02   8.474700E+02   8.487078E+02   8.505159E+02   8.530173E+02   8.554924E+02   8.569990E+02   8.581412E+02   8.601227E+02   8.645949E+02   8.378505E+02   8.452384E+02   8.652538E+02   8.663020E+02   8.588804E+02   8.596187E+02   8.663606E+02   8.696656E+02   8.666021E+02   8.875427E+02   9.020746E+02   8.986479E+02   8.954604E+02   8.992136E+02   9.076493E+02   9.122288E+02   9.207729E+02   9.264927E+02   9.334621E+02   9.413165E+02   9.489037E+02   9.514811E+02   9.524198E+02   9.529611E+02   9.535185E+02   9.595941E+02   9.633461E+02   9.689884E+02   9.747119E+02   9.820212E+02   9.936467E+02   1.005418E+03   1.010466E+03   1.016060E+03   1.018584E+03   1.011394E+03   1.005493E+03   9.980537E+02   9.912537E+02   9.933150E+02   1.010966E+03   1.023601E+03   1.009711E+03   1.002319E+03   1.003328E+03   1.007974E+03   1.011223E+03   1.018609E+03   1.027984E+03   1.038718E+03   1.051158E+03   1.062420E+03   1.070321E+03   1.073701E+03   1.076697E+03   1.079686E+03   1.084194E+03   1.088620E+03   1.090858E+03   1.090176E+03   1.090743E+03   1.093427E+03   1.095787E+03   1.097162E+03   1.098661E+03   1.100659E+03   1.103440E+03   1.105992E+03   1.107455E+03   1.109078E+03   1.110779E+03   1.111287E+03   1.111659E+03   1.112255E+03   1.112799E+03   1.113031E+03   1.112741E+03   1.112244E+03   1.108602E+03   1.093002E+03   1.107422E+03   1.111782E+03   1.114486E+03   1.117604E+03   1.124038E+03   1.137700E+03   1.151798E+03   1.164940E+03   1.173458E+03   1.183580E+03   1.192107E+03   1.200499E+03   1.202625E+03   1.197608E+03   1.193936E+03   1.189151E+03   1.181058E+03   1.176919E+03   1.176267E+03   1.171352E+03   1.167438E+03   1.163527E+03   1.160580E+03   1.158425E+03   1.156203E+03   1.152415E+03   1.150079E+03   1.149486E+03   1.151194E+03   1.155462E+03   1.159192E+03   1.161692E+03   1.163160E+03   1.165321E+03   1.168223E+03   1.170451E+03   1.170575E+03   1.170518E+03   1.170427E+03   1.169937E+03   1.170200E+03   1.170492E+03   1.170823E+03   1.169518E+03   1.166055E+03   1.163817E+03   1.163399E+03   1.166931E+03   1.165080E+03   1.163136E+03   1.155943E+03   1.131509E+03   1.132582E+03   1.134486E+03   1.137308E+03   1.139717E+03