# Name file for MODFLOW-2005, generated by Flopy.
#xul:0; yul:25000; rotation:0; proj4_str:+init=EPSG:4326; units:meters; lenuni:2 ;start_datetime:1-1-1970
LIST           2 example.list
DIS           11 example.dis 
