# Name file for MODFLOW-2005, generated by Flopy version 3.2.9.
#xul:682668.5; yul:5147586.7; rotation:0; proj4_str:+init=EPSG:26715; units:meters; lenuni:1; length_multiplier:0.3048 ;start_datetime:1-1-1970
LIST               2  example.list
DIS               11  example.dis 
