BEGIN options
END options

BEGIN timing
  TDIS6  shellmound.tdis
END timing

BEGIN models
  gwf6  shellmound.nam  shellmound
END models

BEGIN exchanges
END exchanges

BEGIN solutiongroup  1
  ims6  shellmound.ims  shellmound
END solutiongroup  1

