BEGIN options
  PRINT_OPTION  all
  COMPLEXITY  moderate
  CSV_OUTPUT  FILEOUT  solver_out.csv
END options

BEGIN nonlinear
  OUTER_HCLOSE       0.00100000
  OUTER_MAXIMUM  1000
  UNDER_RELAXATION  dbd
  UNDER_RELAXATION_THETA       0.90000000
  UNDER_RELAXATION_KAPPA       0.10000000
  UNDER_RELAXATION_GAMMA       0.20000000
  UNDER_RELAXATION_MOMENTUM       0.00100000
END nonlinear

BEGIN linear
  INNER_MAXIMUM  100
  INNER_HCLOSE       0.00100000
END linear

