BEGIN options
  TIME_UNITS  days
  START_DATE_TIME  2008-10-01
END options

BEGIN dimensions
  NPER  17
END dimensions

BEGIN perioddata
       1.00000000  1       1.00000000
     182.00000000  15       1.50000000
     183.00000000  15       1.50000000
     182.00000000  15       1.50000000
     183.00000000  15       1.50000000
     182.00000000  15       1.50000000
     183.00000000  15       1.50000000
     183.00000000  15       1.50000000
     183.00000000  15       1.50000000
     182.00000000  15       1.50000000
     183.00000000  15       1.50000000
     182.00000000  15       1.50000000
     183.00000000  15       1.50000000
     182.00000000  15       1.50000000
     183.00000000  15       1.50000000
     183.00000000  15       1.50000000
     183.00000000  15       1.50000000
END perioddata

