BEGIN options
  XORIGIN  5.00955000E+05
  YORIGIN  1.17628500E+06
  ANGROT       0.00000000
END options

BEGIN dimensions
  NLAY  13
  NROW  30
  NCOL  35
END dimensions

BEGIN griddata
  delr
    CONSTANT    1000.00000000
  delc
    CONSTANT    1000.00000000
  top
    OPEN/CLOSE  '/Users/aleaf/Documents/GitHub/mfsetup/mfsetup/tests/tmp/shellmound/external/top.dat'  FACTOR  1.0
  botm  LAYERED
    OPEN/CLOSE  '/Users/aleaf/Documents/GitHub/mfsetup/mfsetup/tests/tmp/shellmound/external/botm0.dat'  FACTOR  1.0
    OPEN/CLOSE  '/Users/aleaf/Documents/GitHub/mfsetup/mfsetup/tests/tmp/shellmound/external/botm1.dat'  FACTOR  1.0
    OPEN/CLOSE  '/Users/aleaf/Documents/GitHub/mfsetup/mfsetup/tests/tmp/shellmound/external/botm2.dat'  FACTOR  1.0
    OPEN/CLOSE  '/Users/aleaf/Documents/GitHub/mfsetup/mfsetup/tests/tmp/shellmound/external/botm3.dat'  FACTOR  1.0
    OPEN/CLOSE  '/Users/aleaf/Documents/GitHub/mfsetup/mfsetup/tests/tmp/shellmound/external/botm4.dat'  FACTOR  1.0
    OPEN/CLOSE  '/Users/aleaf/Documents/GitHub/mfsetup/mfsetup/tests/tmp/shellmound/external/botm5.dat'  FACTOR  1.0
    OPEN/CLOSE  '/Users/aleaf/Documents/GitHub/mfsetup/mfsetup/tests/tmp/shellmound/external/botm6.dat'  FACTOR  1.0
    OPEN/CLOSE  '/Users/aleaf/Documents/GitHub/mfsetup/mfsetup/tests/tmp/shellmound/external/botm7.dat'  FACTOR  1.0
    OPEN/CLOSE  '/Users/aleaf/Documents/GitHub/mfsetup/mfsetup/tests/tmp/shellmound/external/botm8.dat'  FACTOR  1.0
    OPEN/CLOSE  '/Users/aleaf/Documents/GitHub/mfsetup/mfsetup/tests/tmp/shellmound/external/botm9.dat'  FACTOR  1.0
    OPEN/CLOSE  '/Users/aleaf/Documents/GitHub/mfsetup/mfsetup/tests/tmp/shellmound/external/botm10.dat'  FACTOR  1.0
    OPEN/CLOSE  '/Users/aleaf/Documents/GitHub/mfsetup/mfsetup/tests/tmp/shellmound/external/botm11.dat'  FACTOR  1.0
    OPEN/CLOSE  '/Users/aleaf/Documents/GitHub/mfsetup/mfsetup/tests/tmp/shellmound/external/botm12.dat'  FACTOR  1.0
  idomain  LAYERED
    OPEN/CLOSE  '/Users/aleaf/Documents/GitHub/mfsetup/mfsetup/tests/tmp/shellmound/external/idomain0.dat'  FACTOR  1
    OPEN/CLOSE  '/Users/aleaf/Documents/GitHub/mfsetup/mfsetup/tests/tmp/shellmound/external/idomain1.dat'  FACTOR  1
    OPEN/CLOSE  '/Users/aleaf/Documents/GitHub/mfsetup/mfsetup/tests/tmp/shellmound/external/idomain2.dat'  FACTOR  1
    OPEN/CLOSE  '/Users/aleaf/Documents/GitHub/mfsetup/mfsetup/tests/tmp/shellmound/external/idomain3.dat'  FACTOR  1
    OPEN/CLOSE  '/Users/aleaf/Documents/GitHub/mfsetup/mfsetup/tests/tmp/shellmound/external/idomain4.dat'  FACTOR  1
    OPEN/CLOSE  '/Users/aleaf/Documents/GitHub/mfsetup/mfsetup/tests/tmp/shellmound/external/idomain5.dat'  FACTOR  1
    OPEN/CLOSE  '/Users/aleaf/Documents/GitHub/mfsetup/mfsetup/tests/tmp/shellmound/external/idomain6.dat'  FACTOR  1
    OPEN/CLOSE  '/Users/aleaf/Documents/GitHub/mfsetup/mfsetup/tests/tmp/shellmound/external/idomain7.dat'  FACTOR  1
    OPEN/CLOSE  '/Users/aleaf/Documents/GitHub/mfsetup/mfsetup/tests/tmp/shellmound/external/idomain8.dat'  FACTOR  1
    OPEN/CLOSE  '/Users/aleaf/Documents/GitHub/mfsetup/mfsetup/tests/tmp/shellmound/external/idomain9.dat'  FACTOR  1
    OPEN/CLOSE  '/Users/aleaf/Documents/GitHub/mfsetup/mfsetup/tests/tmp/shellmound/external/idomain10.dat'  FACTOR  1
    OPEN/CLOSE  '/Users/aleaf/Documents/GitHub/mfsetup/mfsetup/tests/tmp/shellmound/external/idomain11.dat'  FACTOR  1
    OPEN/CLOSE  '/Users/aleaf/Documents/GitHub/mfsetup/mfsetup/tests/tmp/shellmound/external/idomain12.dat'  FACTOR  1
END griddata

