# CHD package for  MODFLOW-NWT, generated by Flopy.
      2690
      2690         0 # stress period 1
         open/close external/CHD_0000.dat
