# DIS package for  MODFLOW-NWT, generated by Flopy.
         5       111       160         1         4         1
  0  0  0  0  0
OPEN/CLOSE               external/delr.ref               1 (160E15.6) -1 delr                          
OPEN/CLOSE               external/delc.ref               1 (111E15.6) -1 delc                          
OPEN/CLOSE                external/top.dat               1     (FREE) -1 model_top                     
OPEN/CLOSE              external/botm0.dat               1     (FREE) -1 botm layer 1                  
OPEN/CLOSE              external/botm1.dat               1     (FREE) -1 botm layer 2                  
OPEN/CLOSE              external/botm2.dat               1     (FREE) -1 botm layer 3                  
OPEN/CLOSE              external/botm3.dat               1     (FREE) -1 botm layer 4                  
OPEN/CLOSE              external/botm4.dat               1     (FREE) -1 botm layer 5                  
      1.000000             1  1.000000  SS 
